32

C       -1.073663       -2.231027       -0.030641
C       -0.058677       -1.628197        0.038382
C        1.184634       -0.678168        0.010577
C        1.170860        0.678168       -0.023156
C       -0.091132        1.581292       -0.008893
C       -1.132022        2.277932        0.013732
C       -2.434223       -2.925221       -0.240028
C        2.650213       -1.118298        0.038159
C        2.629907        1.162079       -0.035924
C       -2.427439        3.037718        0.084853
H       -2.548663       -3.176284       -1.290772
C       -2.453264       -4.230190        0.624846
H       -3.233606       -2.256181        0.076066
N        3.537074        0.016961       -0.231299
O        3.034465       -2.290893        0.264605
O        2.989347        2.349988        0.108840
H       -3.211998        2.468603       -0.384305
H       -2.672853        3.201484        1.122455
O       -2.280102        4.308805       -0.582291
H       -1.646729       -4.884908        0.289717
H       -2.316425       -3.981846        1.658063
H       -3.404990       -4.735505        0.523947
C        4.707782        0.037542        0.638048
C       -3.505744        5.052162       -0.436610
H        5.275631       -0.852323        0.486356
H        5.315785        0.886141        0.403976
H        4.380340        0.091062        1.656637
O       -4.342671        4.742228        0.445209
C       -3.822534        6.240668       -1.345781
H       -3.367840        6.109672       -2.307632
H       -4.888711        6.322202       -1.445069
H       -3.435946        7.121710       -0.914701