32

C                  1.69638191    3.79200069   -1.42497193
 C                  0.72325919    2.98505557   -0.55039466
 C                  1.35458312    2.69933943    0.61612917
 C                  2.74969981    3.32495498    0.54440070
 N                  3.03678066    3.79300002   -0.81351465
 O                  3.53459649    3.42435456    1.51851403
 O                  1.38950839    4.36880223   -2.49032176
 C                  3.69610726    5.09779187   -0.83549033
 C                  0.76996161    1.89882265    1.82700266
 C                 -0.73464970    2.60251900   -0.91982744
 C                  0.24282147    1.20856705    2.63000645
 C                 -1.91828610    2.28477780   -1.17885824
 C                 -0.47792098    0.21135353    3.56063176
 C                 -3.35575230    1.90033149   -1.39191295
 C                 -0.17386489    0.62528570    5.03960780
 O                 -3.60482126    1.70754010   -2.79982402
 C                 -5.00234130    1.41593075   -2.98966165
 O                 -5.83640341    1.68540065   -2.09635523
 C                 -5.51230248    0.77508951   -4.28266520
 H                  3.87661482    5.39354978   -1.84693220
 H                  3.06435066    5.81455945   -0.35465145
 H                  4.62547122    5.03259635   -0.31737417
 H                 -1.54869079    0.25182134    3.37173908
 H                 -0.10516765   -0.79234759    3.37315462
 H                  0.90242465    0.57554637    5.20612255
 H                 -0.52118994    1.62430850    5.21509815
 H                 -4.75921961    0.14933919   -4.71362406
 H                 -6.38979070    0.19646652   -4.05992300
 H                 -5.74938598    1.53465396   -4.97559921
 H                 -3.57688287    0.99052335   -0.85633863
 H                 -3.97801128    2.69880816   -1.02285335
 H                 -0.68401407   -0.03837936    5.72637732
