31
0 1
C       -0.546225       -1.990096        0.017933
C        0.614488       -1.518553       -0.009180
C        1.763090       -0.704536       -0.012523
C        1.507350        0.704536       -0.062552
C        0.162733        1.197468        0.069298
C       -1.094451        1.040145        0.089556
C       -2.406986        1.271037       -0.092532
C       -1.781134       -2.799475       -0.119990
C        3.085045       -1.173512        0.083268
C        2.614523        1.582284       -0.092551
H        0.062149        2.252780        0.322646
C       -2.917885        2.092061       -1.230918
H       -3.161280        0.754110        0.513477
H       -2.362236       -2.400466       -0.945229
H       -2.417181       -2.669776        0.781849
C       -1.475492       -4.289176       -0.334327
C        4.148160       -0.284151        0.049778
H        3.254399       -2.243610        0.150825
H        2.436357        2.652896       -0.159523
C        3.910481        1.098356       -0.052231
C       -3.775517        1.315526       -2.198827
H       -2.091430        2.546884       -1.807144
H       -3.539361        2.927777       -0.857980
H       -0.864928       -4.436440       -1.244670
H       -0.926487       -4.703085        0.504449
H       -2.408363       -4.851140       -0.432721
H        5.166750       -0.655474        0.095676
H        4.747588        1.791009       -0.089634
O       -4.056309        0.138010       -2.140587
O       -4.221281        2.127303       -3.179353
H       -4.755540        1.567428       -3.761334