31
0 1
 C                 -0.70550000   -1.21160000    0.77440000
 C                 -1.97160000   -0.87700000    0.18600000
 C                  0.49078822   -0.94211875    1.09316102
 C                  1.81268822   -1.08681875    1.32286102
 C                 -1.19680000    1.38140000   -0.01330000
 C                 -0.10458822    1.95011875    0.21743898
 H                  2.33918822   -0.39421875    1.97556102
 H                 -0.65360000   -2.18120000    1.26840000
 C                  1.09841178    2.82191875    0.24003898
 H                  1.91651178    2.31941875   -0.28786102
 H                  1.44171178    2.93251875    1.27873898
 C                  2.67018822   -2.06981875    0.57656102
 H                  2.06358822   -2.70231875   -0.08113898
 H                  3.17968822   -2.75491875    1.27256102
 C                  0.82491178    4.20471875   -0.36716102
 H                  1.73341178    4.81621875   -0.33386102
 H                  0.50811178    4.11181875   -1.41086102
 H                  0.03311178    4.72731875    0.17863898
 C                 -2.27430000    0.48450000   -0.14370000
 C                 -3.58640000    0.84330000   -0.50850000
 C                 -2.99940000   -1.83770000    0.05570000
 C                 -4.57050000   -0.12550000   -0.62780000
 H                 -3.80130000    1.88540000   -0.72470000
 C                 -4.27030000   -1.47310000   -0.35720000
 H                 -2.77620000   -2.87940000    0.27490000
 H                 -5.57340000    0.15510000   -0.93710000
 H                 -5.04210000   -2.23070000   -0.46310000
 C                  3.76158822   -1.42971875   -0.26813898
 O                  3.97848822   -0.24461875   -0.39683898
 O                  4.50878822   -2.37791875   -0.88653898
 H                  5.18008822   -1.90071875   -1.40983898